36
16 layers of 2xSi in 2x1 with 4 H on bottom, units in Angstroms
Si       2.437418005647660e+00         0.000000000000000e+00         1.031556555433586e+01
Si       2.526202700270844e-01         0.000000000000000e+00         9.594338018971492e+00
Si       2.791823628348395e+00         1.919792505588974e+00         8.921618566281404e+00
Si      -8.586296866892422e-01         1.919792505588974e+00         8.857821553032380e+00
Si      -2.896091935991466e+00         1.919792505588974e+00         7.602643599982294e+00
Si       1.043118118600126e+00         1.919792505588974e+00         7.360048178224263e+00
Si      -2.873511593742529e+00         0.000000000000000e+00         6.185171154691528e+00
Si       9.570114845669289e-01         0.000000000000000e+00         6.040651428967634e+00
Si       2.879688758383460e+00         0.000000000000000e+00         4.751244047105766e+00
Si      -9.598962527944871e-01         0.000000000000000e+00         4.751244047105766e+00
Si       2.879688758383460e+00         1.919792505588974e+00         3.393745747932690e+00
Si      -9.598962527944871e-01         1.919792505588974e+00         3.393745747932690e+00
Si       9.598962527944871e-01         1.919792505588974e+00         2.036247448759614e+00
Si      -2.879688758383460e+00         1.919792505588974e+00         2.036247448759614e+00
Si       9.598962527944871e-01         0.000000000000000e+00         6.787491495865381e-01
Si      -2.879688758383460e+00         0.000000000000000e+00         6.787491495865381e-01
Si       2.879688758383460e+00        -0.000000000000000e+00        -6.787491495865381e-01
Si      -9.598962527944871e-01        -0.000000000000000e+00        -6.787491495865381e-01
Si       2.879688758383460e+00        -1.919792505588974e+00        -2.036247448759614e+00
Si      -9.598962527944871e-01        -1.919792505588974e+00        -2.036247448759614e+00
Si       9.598962527944871e-01        -1.919792505588974e+00        -3.393745747932690e+00
Si      -2.879688758383460e+00        -1.919792505588974e+00        -3.393745747932690e+00
Si       9.598962527944871e-01        -0.000000000000000e+00        -4.751244047105766e+00
Si      -2.879688758383460e+00        -0.000000000000000e+00        -4.751244047105766e+00
Si       2.879688758383459e+00        -0.000000000000000e+00        -6.091615170928261e+00
Si      -9.598962527944866e-01        -0.000000000000000e+00        -6.091615170928261e+00
Si       2.879688758383459e+00        -1.919792505588973e+00        -7.432799251072855e+00
Si      -9.598962527944866e-01        -1.919792505588973e+00        -7.432799251072855e+00
Si       9.598962527944866e-01        -1.919792505588973e+00        -8.775451176459118e+00
Si      -2.879688758383459e+00        -1.919792505588973e+00        -8.775451176459118e+00
Si       9.598962527944866e-01        -0.000000000000000e+00        -1.009389697059420e+01
Si      -2.879688758383459e+00        -0.000000000000000e+00        -1.009389697059420e+01
H        2.109773627313572e+00        -0.000000000000000e+00        -1.102189543407717e+01
H       -1.899811217245991e-01        -0.000000000000000e+00        -1.102189543407717e+01
H       -1.729811383864374e+00        -0.000000000000000e+00        -1.102189543407717e+01
H       -4.029566132902545e+00        -0.000000000000000e+00        -1.102189543407717e+01
